4

C 0.1707630906 0.0807628749 0.0000145319
O -0.9572422281 -0.0469252481 -0.0000069788
H 3.6709169970 -0.1675050933 0.0000346821
H 2.9624422843 0.0583298293 -0.0000660426
4

C -0.0000000000 -0.0000000000 0.5281029377
O 0.0000000000 0.0000000000 -0.6755037255
H 0.9385903245 -0.0000000000 1.1177060891
H -0.9385903245 0.0000000000 1.1177060890
