16

H -0.7485222427 -1.0418675317 -1.2129144394
H 0.7487007326 -1.0418692935 1.2129547187
C -1.5631074859 -1.0549245919 -0.4829905413
C -1.5805389215 0.1995160696 0.3395257165
C -0.6389103324 1.1485259483 0.3697114086
H -2.4725921387 0.3571383170 0.9464927588
C 0.6387734392 1.1485611361 -0.3697063191
H -2.5120912484 -1.1713806128 -1.0190182525
H -0.8370645098 2.0412260611 0.9649785493
C 1.5804649471 0.1996084091 -0.3395437666
C 1.5632539266 -1.0548110619 0.4829958739
H 0.8368821333 2.0412644140 -0.9649831412
H 2.5122685283 -1.1710564211 1.0190145962
H 2.4724909182 0.3572930952 -0.9465389739
H -1.4396899244 -1.9448257032 0.1480424718
H 1.4400043127 -1.9447777804 -0.1479825196
16

H 2.0280132933 0.4685408091 -1.2384118157
H -2.0279432418 0.4686008487 1.2384449618
C 1.8825225931 0.8484668476 -0.2202071224
C 0.6623490955 0.2025825072 0.4202113835
C 0.5643668674 -1.3095839833 0.3554082268
H 0.5045834262 0.6081916004 1.4294473369
C -0.5644247137 -1.3095387232 -0.3554414288
H 2.7913216938 0.6302062773 0.3528079912
H 1.2073118360 -2.0944390552 0.7477457123
C -0.6623165078 0.2026384512 -0.4202162631
C -1.8824885977 0.8485025321 0.2202261947
H -1.2074856542 -2.0943385257 -0.7477029118
H -2.7912897167 0.6301776123 -0.3527609297
H -0.5045379810 0.6082712593 -1.4294417525
H 1.7751438543 1.9381693402 -0.2723448105
H -1.7751699312 1.9382140443 0.2723302741
